Version 4
SHEET 1 4852 868
WIRE 1888 -192 1376 -192
WIRE 2000 -192 1968 -192
WIRE 1888 -96 1504 -96
WIRE 2000 -96 2000 -192
WIRE 2000 -96 1968 -96
WIRE 2096 -96 2000 -96
WIRE 2160 -96 2096 -96
WIRE 2304 -96 2240 -96
WIRE 2096 32 2096 -96
WIRE 2208 32 2096 32
WIRE 2304 48 2304 -96
WIRE 2304 48 2272 48
WIRE 2656 48 2304 48
WIRE 1888 64 1632 64
WIRE 2000 64 1968 64
WIRE 2096 64 2000 64
WIRE 2208 64 2096 64
WIRE 2096 112 2096 64
WIRE 2656 112 2656 48
WIRE 1888 160 1760 160
WIRE 2000 160 2000 64
WIRE 2000 160 1968 160
WIRE 1376 240 1376 -192
WIRE 1504 240 1504 -96
WIRE 1632 240 1632 64
WIRE 1760 240 1760 160
WIRE 2096 256 2096 192
WIRE 2656 256 2656 192
WIRE 1376 368 1376 320
WIRE 1504 368 1504 320
WIRE 1632 368 1632 320
WIRE 1760 368 1760 320
FLAG 2096 256 0
FLAG 2656 256 0
FLAG 1760 368 0
FLAG 1632 368 0
FLAG 1504 368 0
FLAG 1376 368 0
SYMBOL Opamps\\opamp 2240 -16 R0
SYMATTR InstName U2
SYMBOL res 2144 -80 R270
WINDOW 0 32 56 VTop 2
WINDOW 3 0 56 VBottom 2
SYMATTR InstName R8
SYMATTR Value 1meg
SYMBOL res 1872 -80 R270
WINDOW 0 32 56 VTop 2
WINDOW 3 0 56 VBottom 2
SYMATTR InstName R9
SYMATTR Value 1meg
SYMBOL res 2640 96 R0
SYMATTR InstName R27
SYMATTR Value 1k
SYMBOL res 1872 80 R270
WINDOW 0 32 56 VTop 2
WINDOW 3 0 56 VBottom 2
SYMATTR InstName R6
SYMATTR Value 1meg
SYMBOL res 2080 96 R0
SYMATTR InstName R7
SYMATTR Value 1meg
SYMBOL res 1872 -176 R270
WINDOW 0 32 56 VTop 2
WINDOW 3 0 56 VBottom 2
SYMATTR InstName R1
SYMATTR Value 1meg
SYMBOL res 1872 176 R270
WINDOW 0 32 56 VTop 2
WINDOW 3 0 56 VBottom 2
SYMATTR InstName R2
SYMATTR Value 1meg
SYMBOL voltage 1760 224 R0
WINDOW 3 -53 -18 VRight 2
WINDOW 123 0 0 Left 2
WINDOW 39 0 0 Left 2
SYMATTR InstName V1
SYMATTR Value PULSE(0 1 .1 1p 1p .5 1 2)
SYMBOL voltage 1632 224 R0
WINDOW 3 -53 -18 VRight 2
WINDOW 123 0 0 Left 2
WINDOW 39 0 0 Left 2
SYMATTR InstName V2
SYMATTR Value PULSE(0 1 .2 1p 1p .5 1 2)
SYMBOL voltage 1504 224 R0
WINDOW 3 -53 -18 VRight 2
WINDOW 123 0 0 Left 2
WINDOW 39 0 0 Left 2
SYMATTR InstName V3
SYMATTR Value PULSE(0 1 .3 1p 1p .5 1 2)
SYMBOL voltage 1376 224 R0
WINDOW 3 -53 -18 VRight 2
WINDOW 123 0 0 Left 2
WINDOW 39 0 0 Left 2
SYMATTR InstName V4
SYMATTR Value PULSE(0 1 .4 1p 1p .5 1 2)
TEXT 2440 -208 Left 2 !.tran 0 2.5 0
TEXT 2448 -248 Left 2 !.lib opamp.sub
